Version 4
SHEET 1 1184 824
WIRE -192 -112 -224 -112
WIRE 208 -80 176 -80
WIRE 432 -80 368 -80
WIRE 208 -48 32 -48
WIRE 400 -48 368 -48
WIRE 400 -16 400 -48
WIRE 432 -16 400 -16
WIRE 208 80 176 80
WIRE 432 80 368 80
WIRE -144 112 -224 112
WIRE 208 112 32 112
WIRE 400 112 368 112
WIRE -144 128 -144 112
WIRE 400 144 400 112
WIRE 432 144 400 144
WIRE 112 240 32 240
WIRE 112 256 112 240
WIRE 64 336 32 336
WIRE 448 400 32 400
WIRE 96 624 32 624
WIRE 336 624 176 624
WIRE 224 656 32 656
WIRE 336 656 336 624
WIRE 336 656 304 656
WIRE 336 672 336 656
WIRE 448 720 32 720
FLAG 336 672 0
FLAG 112 256 0
FLAG 448 720 3V3
IOPIN 448 720 BiDir
FLAG 448 400 5V
IOPIN 448 400 BiDir
FLAG 176 -80 USB5V
IOPIN 176 -80 BiDir
FLAG 176 80 USB5V
IOPIN 176 80 BiDir
FLAG 64 336 USB5V
IOPIN 64 336 BiDir
FLAG -192 -112 USB5V
IOPIN -192 -112 BiDir
FLAG -144 128 0
SYMBOL FriedRice\\Arduino -16 320 R0
SYMATTR InstName Arduino
SYMBOL FriedRice\\Button 144 640 R0
SYMATTR InstName BrightnessButton
SYMBOL FriedRice\\Button 272 672 R0
SYMATTR InstName ColorButton
SYMBOL FriedRice\\Boost 288 -48 R0
SYMATTR InstName Boost2700
SYMBOL FriedRice\\Boost 288 112 R0
SYMATTR InstName Boost5700
SYMBOL LED 416 -80 R0
SYMATTR InstName D2700
SYMBOL LED 416 80 R0
SYMATTR InstName D5700
SYMBOL FriedRice\\USBC -272 0 R0
SYMATTR InstName USBConnector
