Version 4
SHEET 1 1184 780
WIRE 448 -112 80 -112
WIRE 448 -80 80 -80
WIRE 96 -48 80 -48
WIRE 336 -48 176 -48
WIRE 224 -16 80 -16
WIRE 336 -16 336 -48
WIRE 336 -16 304 -16
WIRE 336 0 336 -16
WIRE 592 48 560 48
WIRE 752 48 720 48
WIRE 96 80 80 80
WIRE 272 80 176 80
WIRE 160 112 80 112
WIRE 272 112 240 112
WIRE 448 112 448 -80
WIRE 448 112 400 112
WIRE 592 176 480 176
WIRE 848 176 720 176
WIRE 480 240 480 176
WIRE 480 240 80 240
WIRE 592 240 560 240
WIRE 560 256 560 240
WIRE 480 304 80 304
WIRE 960 304 928 304
WIRE 1072 304 1040 304
WIRE 928 320 928 304
WIRE 592 336 560 336
WIRE 752 336 720 336
WIRE 848 336 848 176
WIRE 1072 336 848 336
WIRE 480 368 480 304
WIRE 592 368 480 368
WIRE 1072 368 720 368
WIRE 592 400 80 400
WIRE 1072 400 720 400
WIRE 592 432 80 432
WIRE 1072 432 720 432
WIRE 592 464 80 464
WIRE 1072 464 720 464
WIRE 1072 496 960 496
WIRE 960 512 960 496
WIRE 96 528 80 528
WIRE 208 528 176 528
WIRE 592 528 560 528
WIRE 1072 528 1056 528
WIRE 208 544 208 528
WIRE 560 544 560 528
WIRE 112 592 80 592
WIRE 112 608 112 592
FLAG 336 0 0
FLAG 208 544 0
FLAG 112 608 0
FLAG 560 544 0
FLAG 448 -112 3V3
IOPIN 448 -112 BiDir
FLAG 752 336 3V3
IOPIN 752 336 BiDir
FLAG 448 -80 5V
IOPIN 448 -80 BiDir
FLAG 560 336 5V
IOPIN 560 336 BiDir
FLAG 1056 528 3V3
IOPIN 1056 528 BiDir
FLAG 560 256 0
FLAG 752 48 3V3
IOPIN 752 48 BiDir
FLAG 560 48 5V
IOPIN 560 48 BiDir
FLAG 960 512 0
FLAG 928 320 0
SYMBOL FriedRice\\Arduino 32 320 R0
SYMATTR InstName Arduino
SYMBOL FriedRice\\Button 144 -32 R0
SYMATTR InstName UpButton
SYMBOL FriedRice\\Button 272 0 R0
SYMATTR InstName DownButton
SYMBOL FriedRice\\KingbrightLED 336 112 M0
SYMATTR InstName LED
SYMBOL res 192 64 R90
WINDOW 0 0 56 VBottom 2
WINDOW 3 32 56 VTop 2
SYMATTR InstName R1
SYMATTR Value 200
SYMBOL res 256 96 R90
WINDOW 0 0 56 VBottom 2
WINDOW 3 32 56 VTop 2
SYMATTR InstName R2
SYMATTR Value 300
SYMBOL FriedRice\\Button 144 544 R0
SYMATTR InstName Buzzer
SYMBOL FriedRice\\LevelShifter 656 544 R0
SYMATTR InstName LevelShifter
SYMBOL FriedRice\\LevelShifter 656 256 R0
SYMATTR InstName LevelShifter1
SYMBOL res 1056 288 R90
WINDOW 0 0 56 VBottom 2
WINDOW 3 32 56 VTop 2
SYMATTR InstName R3
SYMATTR Value 300
SYMBOL FriedRice\\NokiaLCD 1120 416 M0
SYMATTR InstName LCDscreen
