Version 4
SHEET 1 880 680
WIRE 48 -80 16 -80
WIRE 96 -80 64 -80
WIRE 48 -48 16 -48
WIRE 96 -48 64 -48
WIRE 48 -16 16 -16
WIRE 96 -16 64 -16
WIRE 48 16 16 16
WIRE 96 16 64 16
WIRE 48 48 16 48
WIRE 96 48 64 48
WIRE 48 80 16 80
WIRE 96 80 64 80
WIRE 48 112 16 112
WIRE 96 112 64 112
WIRE 48 144 16 144
WIRE 96 144 64 144
WIRE 48 176 16 176
WIRE 96 176 64 176
WIRE 48 208 16 208
WIRE 96 208 64 208
WIRE 48 240 16 240
WIRE 96 240 64 240
WIRE 48 272 16 272
WIRE 96 272 64 272
WIRE 48 304 16 304
WIRE 96 304 64 304
WIRE 48 336 16 336
WIRE 96 336 64 336
WIRE 48 368 16 368
WIRE 96 368 64 368
FLAG 16 16 GND
IOPIN 16 16 BiDir
FLAG 16 48 D2
IOPIN 16 48 BiDir
FLAG 16 80 D3~
IOPIN 16 80 BiDir
FLAG 16 112 D4
IOPIN 16 112 BiDir
FLAG 16 144 D5~
IOPIN 16 144 BiDir
FLAG 16 176 D6~
IOPIN 16 176 BiDir
FLAG 16 208 D7
IOPIN 16 208 BiDir
FLAG 16 240 D8
IOPIN 16 240 BiDir
FLAG 16 272 D9~
IOPIN 16 272 BiDir
FLAG 16 304 D10~
IOPIN 16 304 BiDir
FLAG 16 -16 RST
IOPIN 16 -16 BiDir
FLAG 16 -48 RX0
IOPIN 16 -48 BiDir
FLAG 16 -80 TX1
IOPIN 16 -80 BiDir
FLAG 16 336 D11~
IOPIN 16 336 BiDir
FLAG 16 368 D12~
IOPIN 16 368 BiDir
FLAG 96 -48 GND
IOPIN 96 -48 BiDir
FLAG 96 48 A7
IOPIN 96 48 BiDir
FLAG 96 80 A6
IOPIN 96 80 BiDir
FLAG 96 112 A5
IOPIN 96 112 BiDir
FLAG 96 144 A4
IOPIN 96 144 BiDir
FLAG 96 176 A3
IOPIN 96 176 BiDir
FLAG 96 208 A2
IOPIN 96 208 BiDir
FLAG 96 240 A1
IOPIN 96 240 BiDir
FLAG 96 272 A0
IOPIN 96 272 BiDir
FLAG 96 304 VREF
IOPIN 96 304 BiDir
FLAG 96 -16 RST
IOPIN 96 -16 BiDir
FLAG 96 16 5V
IOPIN 96 16 BiDir
FLAG 96 -80 VIN
IOPIN 96 -80 BiDir
FLAG 96 336 3V3
IOPIN 96 336 BiDir
FLAG 96 368 D13
IOPIN 96 368 BiDir
