Version 4
SHEET 1 880 680
FLAG 256 112 PGND
IOPIN 256 112 BiDir
FLAG 256 144 VIN
IOPIN 256 144 BiDir
FLAG 256 176 DIM
IOPIN 256 176 BiDir
FLAG 368 144 PAD
IOPIN 368 144 BiDir
FLAG 480 112 SW
IOPIN 480 112 BiDir
FLAG 480 144 AGND
IOPIN 480 144 BiDir
FLAG 480 176 FB
IOPIN 480 176 BiDir
