Version 4
SHEET 1 880 680
WIRE -32 64 -48 64
WIRE 48 64 32 64
WIRE -48 96 -48 64
WIRE -32 96 -48 96
WIRE 32 96 32 64
WIRE 48 96 32 96
FLAG 48 64 A
IOPIN 48 64 BiDir
FLAG 48 96 A
IOPIN 48 96 BiDir
FLAG -32 96 B
IOPIN -32 96 BiDir
FLAG -32 64 B
IOPIN -32 64 BiDir
