Version 4
SHEET 1 880 680
FLAG 192 112 A
IOPIN 192 112 BiDir
FLAG 192 144 B
IOPIN 192 144 BiDir
