Version 4
SHEET 1 880 680
FLAG 176 16 VccA
IOPIN 176 16 BiDir
FLAG 176 48 A1
IOPIN 176 48 BiDir
FLAG 176 80 A2
IOPIN 176 80 BiDir
FLAG 176 112 A3
IOPIN 176 112 BiDir
FLAG 176 144 A4
IOPIN 176 144 BiDir
FLAG 176 176 6
IOPIN 176 176 BiDir
FLAG 176 208 GND
IOPIN 176 208 BiDir
FLAG 320 16 VccB
IOPIN 320 16 BiDir
FLAG 320 48 B1
IOPIN 320 48 BiDir
FLAG 320 80 B2
IOPIN 320 80 BiDir
FLAG 320 112 B3
IOPIN 320 112 BiDir
FLAG 320 144 B4
IOPIN 320 144 BiDir
FLAG 320 176 10
IOPIN 320 176 BiDir
FLAG 320 208 OE
IOPIN 320 208 BiDir
