Version 4
SHEET 1 880 680
FLAG 208 160 RST
IOPIN 208 160 BiDir
FLAG 208 192 SCE
IOPIN 208 192 BiDir
FLAG 208 224 GND
IOPIN 208 224 BiDir
FLAG 208 128 D/C
IOPIN 208 128 BiDir
FLAG 208 96 DN
IOPIN 208 96 BiDir
FLAG 208 64 SCLK
IOPIN 208 64 BiDir
FLAG 208 32 LED
IOPIN 208 32 BiDir
FLAG 208 256 VCC
IOPIN 208 256 BiDir
